[TITLE]
GESSLER EXAMPLE PROBLEM 4-9

[JUNCTIONS]
;ID              	Elev        	Demand      	Pattern         
 2               	4500        	0           	                	;
 3               	4500        	100         	                	;
 4               	4500        	0           	                	;
 5               	4500        	0           	                	;
 6               	4500        	50          	                	;
 7               	4500        	0           	                	;
 8               	4500        	50          	                	;
 9               	4500        	0           	                	;
 10              	4500        	0           	                	;
 11              	4500        	100         	                	;
 12              	4500        	950         	                	;

[RESERVOIRS]
;ID              	Head        	Pattern         
 1               	5000        	                	;

[TANKS]
;ID              	Elevation   	InitLevel   	MinLevel    	MaxLevel    	Diameter    	MinVol      	VolCurve        	Overflow

[PIPES]
;ID              	Node1           	Node2           	Length      	Diameter    	Roughness   	MinorLoss   	Status
 1               	1               	2               	5000        	8           	110         	0           	Open  	;
 2               	2               	3               	3000        	6           	110         	0           	Open  	;
 3               	2               	4               	600         	6           	110         	0           	Open  	;
 4               	3               	7               	600         	6           	110         	0           	Open  	;
 5               	4               	5               	1500        	6           	110         	0           	Open  	;
 6               	5               	7               	1500        	6           	110         	0           	Open  	;
 7               	4               	9               	600         	6           	110         	0           	Open  	;
 8               	6               	11              	600         	6           	110         	0           	Open  	;
 9               	8               	12              	600         	6           	110         	0           	Open  	;
 10              	10              	11              	1500        	6           	110         	0           	Open  	;
 11              	11              	12              	1500        	4           	110         	0           	Open  	;

[PUMPS]
;ID              	Node1           	Node2           	Parameters

[VALVES]
;ID              	Node1           	Node2           	Diameter    	Type	Setting     	MinorLoss   
 12              	5               	6               	6           	PRV 	100         	0.01        	;10
 13              	7               	8               	6           	PRV 	100         	0.01        	;10
 14              	9               	10              	6           	PRV 	100         	0.01        	;10

[TAGS]

[DEMANDS]
;Junction        	Demand      	Pattern         	Category

[STATUS]
;ID              	Status/Setting

[PATTERNS]
;ID              	Multipliers

[CURVES]
;ID              	X-Value     	Y-Value

[CONTROLS]


[RULES]


[ENERGY]
 Global Efficiency  	75
 Global Price       	0
 Demand Charge      	0

[EMITTERS]
;Junction        	Coefficient

[QUALITY]
;Node            	InitQual

[SOURCES]
;Node            	Type        	Quality     	Pattern

[REACTIONS]
;Type     	Pipe/Tank       	Coefficient


[REACTIONS]
 Order Bulk            	1
 Order Tank            	1
 Order Wall            	1
 Global Bulk           	0
 Global Wall           	0
 Limiting Potential    	0
 Roughness Correlation 	0

[MIXING]
;Tank            	Model

[TIMES]
 Duration           	0:00 
 Hydraulic Timestep 	1:00 
 Quality Timestep   	0:05 
 Pattern Timestep   	1:00 
 Pattern Start      	0:00 
 Report Timestep    	1:00 
 Report Start       	0:00 
 Start ClockTime    	12 am
 Statistic          	NONE

[REPORT]
 Status             	No
 Summary            	No
 Page               	0

[OPTIONS]
 Units              	GPM
 Headloss           	H-W
 Specific Gravity   	1
 Viscosity          	1
 Trials             	40
 Accuracy           	0.001
 CHECKFREQ          	2
 MAXCHECK           	10
 DAMPLIMIT          	0
 Unbalanced         	Continue 10
 Pattern            	1
 Demand Multiplier  	1.0
 Emitter Exponent   	0.5
 Quality            	None mg/L
 Diffusivity        	1
 Tolerance          	0.01

[COORDINATES]
;Node            	X-Coord           	Y-Coord
2               	1000.000          	0.000             
3               	2000.000          	0.000             
4               	3000.000          	0.000             
5               	4000.000          	0.000             
6               	4000.000          	1000.000          
7               	4106.461          	-926.474          
8               	8387.224          	2331.758          
9               	3000.000          	2000.000          
10              	2979.945          	3059.661          
11              	4071.799          	3215.641          
12              	4000.000          	4000.000          
1               	0.000             	0.000             

[VERTICES]
;Link            	X-Coord           	Y-Coord

[LABELS]
;X-Coord             Y-Coord             Label & Anchor Node

[BACKDROP]
  DIMENSIONS  	0.000             	0.000             	10000.000         	10000.000         
 UNITS          	None
 FILE           	
 OFFSET         	0.00            	0.00            

[END]
