[TITLE]


[JUNCTIONS]
;ID              	Elev        	Demand      	Pattern         
 2               	30          	247.22      	                	;
 3               	30          	236.11      	                	;
 4               	30          	36.11       	                	;
 5               	30          	201.39      	                	;
 6               	30          	279.17      	                	;
 7               	30          	375         	                	;
 8               	30          	152.78      	                	;
 9               	30          	145.83      	                	;
 10              	30          	145.83      	                	;
 11              	30          	138.89      	                	;
 12              	30          	155.56      	                	;
 13              	30          	261.11      	                	;
 14              	30          	170.83      	                	;
 15              	30          	77.78       	                	;
 16              	30          	86.11       	                	;
 17              	30          	240.28      	                	;
 18              	30          	373.61      	                	;
 19              	30          	16.67       	                	;
 20              	30          	354.17      	                	;
 21              	30          	258.33      	                	;
 22              	30          	134.72      	                	;
 23              	30          	290.28      	                	;
 24              	30          	227.78      	                	;
 25              	30          	47.22       	                	;
 26              	30          	250         	                	;
 27              	30          	102.78      	                	;
 28              	30          	80.56       	                	;
 29              	30          	100         	                	;
 30              	30          	100         	                	;
 31              	30          	29.17       	                	;
 32              	30          	223.61      	                	;

[RESERVOIRS]
;ID              	Head        	Pattern         
 1               	100         	                	;

[TANKS]
;ID              	Elevation   	InitLevel   	MinLevel    	MaxLevel    	Diameter    	MinVol      	VolCurve        	Overflow

[PIPES]
;ID              	Node1           	Node2           	Length      	Diameter    	Roughness   	MinorLoss   	Status
 1               	1               	2               	100         	1016        	130         	0           	Open  	;
 2               	2               	3               	1350        	1016        	130         	0           	Open  	;
 5               	5               	6               	1450        	1016        	130         	0           	Open  	;
 6               	6               	7               	450         	1016        	130         	0           	Open  	;
 7               	7               	8               	850         	1016        	130         	0           	Open  	;
 8               	8               	9               	850         	1016        	130         	0           	Open  	;
 9               	9               	10              	800         	1016        	130         	0           	Open  	;
 10              	10              	11              	950         	762         	130         	0           	Open  	;
 11              	11              	12              	1200        	762         	130         	0           	Open  	;
 12              	12              	13              	3500        	609.6       	130         	0           	Open  	;
 13              	10              	14              	800         	406.4       	130         	0           	Open  	;
 14              	14              	15              	500         	406.4       	130         	0           	Open  	;
 15              	15              	16              	550         	304.8       	130         	0           	Open  	;
 16              	17              	16              	2730        	406.4       	130         	0           	Open  	;
 17              	17              	18              	1750        	508         	130         	0           	Open  	;
 19              	19              	3               	400         	609.6       	130         	0           	Open  	;
 20              	3               	20              	2200        	1016        	130         	0           	Open  	;
 21              	20              	21              	1500        	508         	130         	0           	Open  	;
 22              	21              	22              	500         	304.8       	130         	0           	Open  	;
 24              	23              	24              	1230        	762         	130         	0           	Open  	;
 25              	24              	25              	1300        	762         	130         	0           	Open  	;
 26              	26              	25              	850         	508         	130         	0           	Open  	;
 27              	27              	26              	300         	304.8       	130         	0           	Open  	;
 28              	16              	27              	750         	304.8       	130         	0           	Open  	;
 29              	23              	28              	1500        	406.4       	130         	0           	Open  	;
 30              	28              	29              	2000        	406.4       	130         	0           	Open  	;
 31              	29              	30              	1600        	304.8       	130         	0           	Open  	;
 32              	30              	31              	150         	304.8       	130         	0           	Open  	;
 33              	32              	31              	860         	406.4       	130         	0           	Open  	;
 34              	25              	32              	950         	508         	130         	0           	Open  	;
 3               	3               	4               	1000        	12          	100         	0           	Open  	;

[PUMPS]
;ID              	Node1           	Node2           	Parameters

[VALVES]
;ID              	Node1           	Node2           	Diameter    	Type	Setting     	MinorLoss   
 23              	20              	23              	12          	PRV 	0           	0           	;
 35              	19              	18              	12          	PRV 	0           	0           	;
 36              	4               	5               	12          	PRV 	0           	0           	;

[TAGS]

[DEMANDS]
;Junction        	Demand      	Pattern         	Category

[STATUS]
;ID              	Status/Setting

[PATTERNS]
;ID              	Multipliers

[CURVES]
;ID              	X-Value     	Y-Value

[CONTROLS]





[RULES]





[ENERGY]
 Global Efficiency  	75
 Global Price       	0
 Demand Charge      	0

[EMITTERS]
;Junction        	Coefficient

[QUALITY]
;Node            	InitQual

[SOURCES]
;Node            	Type        	Quality     	Pattern

[REACTIONS]
;Type     	Pipe/Tank       	Coefficient


[REACTIONS]
 Order Bulk            	1
 Order Tank            	1
 Order Wall            	1
 Global Bulk           	0
 Global Wall           	0
 Limiting Potential    	0
 Roughness Correlation 	0

[MIXING]
;Tank            	Model

[TIMES]
 Duration           	0:00 
 Hydraulic Timestep 	1:00 
 Quality Timestep   	0:05 
 Pattern Timestep   	1:00 
 Pattern Start      	0:00 
 Report Timestep    	1:00 
 Report Start       	0:00 
 Start ClockTime    	12 am
 Statistic          	NONE

[REPORT]
 Status             	No
 Summary            	No
 Page               	0

[OPTIONS]
 Units              	CMH
 Headloss           	H-W
 Specific Gravity   	1
 Viscosity          	1
 Trials             	40
 Accuracy           	0.000001
 CHECKFREQ          	2
 MAXCHECK           	10
 DAMPLIMIT          	0
 Unbalanced         	Continue 10
 Pattern            	1
 Demand Multiplier  	1.0
 Emitter Exponent   	0.5
 Quality            	None mg/L
 Diffusivity        	1
 Tolerance          	0.01

[COORDINATES]
;Node            	X-Coord           	Y-Coord
2               	5251.170          	5268.690          
3               	5227.800          	5969.630          
4               	6068.930          	5969.630          
5               	6676.400          	5969.630          
6               	7260.510          	5969.630          
7               	7260.510          	6600.470          
8               	7260.510          	7301.400          
9               	7260.510          	7990.650          
10              	6793.220          	7990.650          
11              	6793.220          	8551.400          
12              	6793.220          	8960.280          
13              	6150.700          	8960.280          
14              	6302.570          	7990.650          
15              	5683.410          	7990.650          
16              	5216.120          	7990.650          
17              	5216.120          	7535.050          
18              	5227.800          	7137.850          
19              	5227.800          	6542.060          
20              	4550.230          	5969.630          
21              	4550.230          	5303.740          
22              	4550.230          	4591.120          
23              	3977.800          	5969.630          
24              	3977.800          	7172.900          
25              	3954.440          	7990.650          
26              	4410.050          	7990.650          
27              	4818.930          	7990.650          
28              	3405.370          	5969.630          
29              	2716.120          	6004.670          
30              	2716.120          	6904.210          
31              	2716.120          	7990.650          
32              	3405.370          	7990.650          
1               	5251.170          	4485.980          

[VERTICES]
;Link            	X-Coord           	Y-Coord

[LABELS]
;X-Coord             Y-Coord             Label & Anchor Node

[BACKDROP]
  DIMENSIONS  	0.000             	0.000             	10000.000         	10000.000         
 UNITS          	None
 FILE           	
 OFFSET         	0.00            	0.00            

[END]
